
Version,
  24.2;                                   !- Version Identifier

Timestep,
  1;                                      !- Number of Timesteps per Hour

Building,
  Building 1,                             !- Name
  ,                                       !- North Axis {deg}
  Suburbs,                                !- Terrain
  ,                                       !- Loads Convergence Tolerance Value {W}
  ,                                       !- Temperature Convergence Tolerance Value {deltaC}
  ,                                       !- Solar Distribution
  ,                                       !- Maximum Number of Warmup Days
  ;                                       !- Minimum Number of Warmup Days

Zone,
  attic - unvented,                       !- Name
  ,                                       !- Direction of Relative North {deg}
  0,                                      !- X Origin {m}
  0,                                      !- Y Origin {m}
  0,                                      !- Z Origin {m}
  ,                                       !- Type
  1,                                      !- Multiplier
  ,                                       !- Ceiling Height {m}
  104.690985541999,                       !- Volume {m3}
  ,                                       !- Floor Area {m2}
  ,                                       !- Zone Inside Convection Algorithm
  ,                                       !- Zone Outside Convection Algorithm
  Yes;                                    !- Part of Total Floor Area

Space,
  attic - unvented 1,                     !- Name
  attic - unvented,                       !- Zone Name
  ,                                       !- Ceiling Height {m}
  104.690985541999,                       !- Volume {m3}
  ;                                       !- Floor Area {m2}

BuildingSurface:Detailed,
  Roof1:0,                                !- Name
  Roof,                                   !- Surface Type
  Roof1 construction,                     !- Construction Name
  attic - unvented,                       !- Zone Name
  attic - unvented 1,                     !- Space Name
  Outdoors,                               !- Outside Boundary Condition
  ,                                       !- Outside Boundary Condition Object
  SunExposed,                             !- Sun Exposure
  WindExposed,                            !- Wind Exposure
  ,                                       !- View Factor to Ground
  ,                                       !- Number of Vertices
  -18.8191410671404, 40.5279876671404, 2.7432, !- X,Y,Z Vertex 1 {m}
  -18.8191410671404, 29.936724918176, 8.03883137448218, !- X,Y,Z Vertex 2 {m}
  -15.8587931328597, 29.936724918176, 8.03883137448218, !- X,Y,Z Vertex 3 {m}
  -15.8587931328597, 40.5279876671404, 2.7432; !- X,Y,Z Vertex 4 {m}

BuildingSurface:Detailed,
  Roof1:180,                              !- Name
  Roof,                                   !- Surface Type
  Roof1 construction,                     !- Construction Name
  attic - unvented,                       !- Zone Name
  attic - unvented 1,                     !- Space Name
  Outdoors,                               !- Outside Boundary Condition
  ,                                       !- Outside Boundary Condition Object
  SunExposed,                             !- Sun Exposure
  WindExposed,                            !- Wind Exposure
  ,                                       !- View Factor to Ground
  ,                                       !- Number of Vertices
  -27.8298893328596, -40.5279876671404, 2.7432, !- X,Y,Z Vertex 1 {m}
  -27.8298893328596, -29.936724918176, 8.03883137448218, !- X,Y,Z Vertex 2 {m}
  -30.7902372671403, -29.936724918176, 8.03883137448218, !- X,Y,Z Vertex 3 {m}
  -30.7902372671403, -40.5279876671404, 2.7432; !- X,Y,Z Vertex 4 {m}

BuildingSurface:Detailed,
  Roof1:270,                              !- Name
  Roof,                                   !- Surface Type
  Roof1 construction,                     !- Construction Name
  attic - unvented,                       !- Zone Name
  attic - unvented 1,                     !- Space Name
  Outdoors,                               !- Outside Boundary Condition
  ,                                       !- Outside Boundary Condition Object
  SunExposed,                             !- Sun Exposure
  WindExposed,                            !- Wind Exposure
  ,                                       !- View Factor to Ground
  ,                                       !- Number of Vertices
  -40.5279876671404, 27.8298893328596, 2.7432, !- X,Y,Z Vertex 1 {m}
  -29.936724918176, 27.8298893328596, 8.03883137448218, !- X,Y,Z Vertex 2 {m}
  -29.936724918176, 30.7902372671403, 8.03883137448218, !- X,Y,Z Vertex 3 {m}
  -40.5279876671404, 30.7902372671403, 2.7432; !- X,Y,Z Vertex 4 {m}

BuildingSurface:Detailed,
  Roof1:90,                               !- Name
  Roof,                                   !- Surface Type
  Roof1 construction,                     !- Construction Name
  attic - unvented,                       !- Zone Name
  attic - unvented 1,                     !- Space Name
  Outdoors,                               !- Outside Boundary Condition
  ,                                       !- Outside Boundary Condition Object
  SunExposed,                             !- Sun Exposure
  WindExposed,                            !- Wind Exposure
  ,                                       !- View Factor to Ground
  ,                                       !- Number of Vertices
  40.5279876671404, -27.8298893328596, 2.7432, !- X,Y,Z Vertex 1 {m}
  29.936724918176, -27.8298893328596, 8.03883137448218, !- X,Y,Z Vertex 2 {m}
  29.936724918176, -30.7902372671403, 8.03883137448218, !- X,Y,Z Vertex 3 {m}
  40.5279876671404, -30.7902372671403, 2.7432; !- X,Y,Z Vertex 4 {m}

BuildingSurface:Detailed,
  Surface 1 Reversed,                     !- Name
  Floor,                                  !- Surface Type
  Floor1 construction Reversed,           !- Construction Name
  attic - unvented,                       !- Zone Name
  attic - unvented 1,                     !- Space Name
  Surface,                                !- Outside Boundary Condition
  Floor1,                                 !- Outside Boundary Condition Object
  NoSun,                                  !- Sun Exposure
  NoWind,                                 !- Wind Exposure
  ,                                       !- View Factor to Ground
  ,                                       !- Number of Vertices
  -5.59953355200234, -5.59953355200235, 2.7432, !- X,Y,Z Vertex 1 {m}
  -5.59953355200234, 5.59953355200235, 2.7432, !- X,Y,Z Vertex 2 {m}
  5.59953355200234, 5.59953355200235, 2.7432, !- X,Y,Z Vertex 3 {m}
  5.59953355200234, -5.59953355200235, 2.7432; !- X,Y,Z Vertex 4 {m}

BuildingSurface:Detailed,
  Wall2:0,                                !- Name
  Wall,                                   !- Surface Type
  Wall2 construction,                     !- Construction Name
  attic - unvented,                       !- Zone Name
  attic - unvented 1,                     !- Space Name
  Outdoors,                               !- Outside Boundary Condition
  ,                                       !- Outside Boundary Condition Object
  SunExposed,                             !- Sun Exposure
  WindExposed,                            !- Wind Exposure
  ,                                       !- View Factor to Ground
  ,                                       !- Number of Vertices
  -39.5989572671403, 40.5279876671404, 0.3048, !- X,Y,Z Vertex 1 {m}
  -39.5989572671403, 40.5279876671404, 2.7432, !- X,Y,Z Vertex 2 {m}
  -37.4558322671404, 40.5279876671404, 2.7432, !- X,Y,Z Vertex 3 {m}
  -37.4558322671404, 40.5279876671404, 0.3048; !- X,Y,Z Vertex 4 {m}

BuildingSurface:Detailed,
  Wall2:180,                              !- Name
  Wall,                                   !- Surface Type
  Wall2 construction,                     !- Construction Name
  attic - unvented,                       !- Zone Name
  attic - unvented 1,                     !- Space Name
  Outdoors,                               !- Outside Boundary Condition
  ,                                       !- Outside Boundary Condition Object
  SunExposed,                             !- Sun Exposure
  WindExposed,                            !- Wind Exposure
  ,                                       !- View Factor to Ground
  ,                                       !- Number of Vertices
  -4.29315667588813, -40.5279876671404, 0.3048, !- X,Y,Z Vertex 1 {m}
  -4.29315667588813, -40.5279876671404, 2.7432, !- X,Y,Z Vertex 2 {m}
  -6.43628167588813, -40.5279876671404, 2.7432, !- X,Y,Z Vertex 3 {m}
  -6.43628167588813, -40.5279876671404, 0.3048; !- X,Y,Z Vertex 4 {m}

BuildingSurface:Detailed,
  Wall2:270,                              !- Name
  Wall,                                   !- Surface Type
  Wall2 construction,                     !- Construction Name
  attic - unvented,                       !- Zone Name
  attic - unvented 1,                     !- Space Name
  Outdoors,                               !- Outside Boundary Condition
  ,                                       !- Outside Boundary Condition Object
  SunExposed,                             !- Sun Exposure
  WindExposed,                            !- Wind Exposure
  ,                                       !- View Factor to Ground
  ,                                       !- Number of Vertices
  -40.5279876671404, 9.79327313285964, 0.3048, !- X,Y,Z Vertex 1 {m}
  -40.5279876671404, 9.79327313285964, 2.7432, !- X,Y,Z Vertex 2 {m}
  -40.5279876671404, 11.9363981328596, 2.7432, !- X,Y,Z Vertex 3 {m}
  -40.5279876671404, 11.9363981328596, 0.3048; !- X,Y,Z Vertex 4 {m}

BuildingSurface:Detailed,
  Wall2:90,                               !- Name
  Wall,                                   !- Surface Type
  Wall2 construction,                     !- Construction Name
  attic - unvented,                       !- Zone Name
  attic - unvented 1,                     !- Space Name
  Outdoors,                               !- Outside Boundary Condition
  ,                                       !- Outside Boundary Condition Object
  SunExposed,                             !- Sun Exposure
  WindExposed,                            !- Wind Exposure
  ,                                       !- View Factor to Ground
  ,                                       !- Number of Vertices
  40.5279876671404, -9.79327313285964, 0.3048, !- X,Y,Z Vertex 1 {m}
  40.5279876671404, -9.79327313285964, 2.7432, !- X,Y,Z Vertex 2 {m}
  40.5279876671404, -11.9363981328596, 2.7432, !- X,Y,Z Vertex 3 {m}
  40.5279876671404, -11.9363981328596, 0.3048; !- X,Y,Z Vertex 4 {m}

OtherEquipment,
  central ac and furnace airloop_0 RetCondToDZ, !- Name
  None,                                   !- Fuel Type
  attic - unvented 1,                     !- Zone or ZoneList or Space or SpaceList Name
  Always On Discrete,                     !- Schedule Name
  EquipmentLevel,                         !- Design Level Calculation Method
  0,                                      !- Design Level {W}
  ,                                       !- Power per Floor Area {W/m2}
  ,                                       !- Power per Person {W/person}
  0,                                      !- Fraction Latent
  0,                                      !- Fraction Radiant
  0,                                      !- Fraction Lost
  ,                                       !- Carbon Dioxide Generation Rate {m3/s-W}
  General;                                !- End-Use Subcategory

Schedule:Constant,
  Always On Discrete,                     !- Name
  OnOff,                                  !- Schedule Type Limits Name
  1;                                      !- Hourly Value

OtherEquipment,
  central ac and furnace airloop_0 SupCondToDZ, !- Name
  None,                                   !- Fuel Type
  attic - unvented 1,                     !- Zone or ZoneList or Space or SpaceList Name
  Always On Discrete,                     !- Schedule Name
  EquipmentLevel,                         !- Design Level Calculation Method
  0,                                      !- Design Level {W}
  ,                                       !- Power per Floor Area {W/m2}
  ,                                       !- Power per Person {W/person}
  0,                                      !- Fraction Latent
  0,                                      !- Fraction Radiant
  0,                                      !- Fraction Lost
  ,                                       !- Carbon Dioxide Generation Rate {m3/s-W}
  General;                                !- End-Use Subcategory

OtherEquipment,
  central ac and furnace airloop_0 SupLatLkToDZ, !- Name
  None,                                   !- Fuel Type
  attic - unvented 1,                     !- Zone or ZoneList or Space or SpaceList Name
  Always On Discrete,                     !- Schedule Name
  EquipmentLevel,                         !- Design Level Calculation Method
  0,                                      !- Design Level {W}
  ,                                       !- Power per Floor Area {W/m2}
  ,                                       !- Power per Person {W/person}
  1,                                      !- Fraction Latent
  0,                                      !- Fraction Radiant
  0,                                      !- Fraction Lost
  ,                                       !- Carbon Dioxide Generation Rate {m3/s-W}
  General;                                !- End-Use Subcategory

OtherEquipment,
  central ac and furnace airloop_0 SupSensLkToDZ, !- Name
  None,                                   !- Fuel Type
  attic - unvented 1,                     !- Zone or ZoneList or Space or SpaceList Name
  Always On Discrete,                     !- Schedule Name
  EquipmentLevel,                         !- Design Level Calculation Method
  0,                                      !- Design Level {W}
  ,                                       !- Power per Floor Area {W/m2}
  ,                                       !- Power per Person {W/person}
  0,                                      !- Fraction Latent
  0,                                      !- Fraction Radiant
  0,                                      !- Fraction Lost
  ,                                       !- Carbon Dioxide Generation Rate {m3/s-W}
  General;                                !- End-Use Subcategory

ZoneInfiltration:DesignFlowRate,
  attic_unvented 1 duct leakage imbalance infil flow, !- Name
  attic - unvented 1,                     !- Zone or ZoneList or Space or SpaceList Name
  Always On Discrete,                     !- Schedule Name
  Flow/Zone,                              !- Design Flow Rate Calculation Method
  0,                                      !- Design Flow Rate {m3/s}
  ,                                       !- Flow Rate per Floor Area {m3/s-m2}
  ,                                       !- Flow Rate per Exterior Surface Area {m3/s-m2}
  ,                                       !- Air Changes per Hour {1/hr}
  ,                                       !- Constant Term Coefficient
  ,                                       !- Temperature Term Coefficient
  ,                                       !- Velocity Term Coefficient
  ;                                       !- Velocity Squared Term Coefficient

ZoneInfiltration:DesignFlowRate,
  infil attic - unvented 1,               !- Name
  attic - unvented 1,                     !- Zone or ZoneList or Space or SpaceList Name
  Always On Discrete,                     !- Schedule Name
  AirChanges/Hour,                        !- Design Flow Rate Calculation Method
  ,                                       !- Design Flow Rate {m3/s}
  ,                                       !- Flow Rate per Floor Area {m3/s-m2}
  ,                                       !- Flow Rate per Exterior Surface Area {m3/s-m2}
  0.1,                                    !- Air Changes per Hour {1/hr}
  1,                                      !- Constant Term Coefficient
  0,                                      !- Temperature Term Coefficient
  0,                                      !- Velocity Term Coefficient
  0;                                      !- Velocity Squared Term Coefficient

ZoneMixing,
  central ac and furnace airloop_0 ZoneMixCondToDZ mix, !- Name
  attic - unvented,                       !- Zone or Space Name
  Always On Continuous,                   !- Schedule Name
  Flow/Zone,                              !- Design Flow Rate Calculation Method
  0,                                      !- Design Flow Rate {m3/s}
  ,                                       !- Flow Rate per Floor Area {m3/s-m2}
  ,                                       !- Flow Rate per Person {m3/s-person}
  ,                                       !- Air Changes per Hour {1/hr}
  conditioned space;                      !- Source Zone or Space Name

Schedule:Constant,
  Always On Continuous,                   !- Name
  Fractional 1,                           !- Schedule Type Limits Name
  1;                                      !- Hourly Value

ZoneMixing,
  whole house fan mix,                    !- Name
  attic - unvented,                       !- Zone or Space Name
  Always On Continuous,                   !- Schedule Name
  Flow/Zone,                              !- Design Flow Rate Calculation Method
  0,                                      !- Design Flow Rate {m3/s}
  ,                                       !- Flow Rate per Floor Area {m3/s-m2}
  ,                                       !- Flow Rate per Person {m3/s-person}
  ,                                       !- Air Changes per Hour {1/hr}
  conditioned space;                      !- Source Zone or Space Name

Zone,
  central ac and furnace airloop ret air zone, !- Name
  ,                                       !- Direction of Relative North {deg}
  0,                                      !- X Origin {m}
  0,                                      !- Y Origin {m}
  0,                                      !- Z Origin {m}
  ,                                       !- Type
  1,                                      !- Multiplier
  ,                                       !- Ceiling Height {m}
  1,                                      !- Volume {m3}
  ,                                       !- Floor Area {m2}
  ,                                       !- Zone Inside Convection Algorithm
  ,                                       !- Zone Outside Convection Algorithm
  No;                                     !- Part of Total Floor Area

Space,
  central ac and furnace airloop ret air space, !- Name
  central ac and furnace airloop ret air zone, !- Zone Name
  ,                                       !- Ceiling Height {m}
  ,                                       !- Volume {m3}
  ,                                       !- Floor Area {m2}
  Plenum Space Type;                      !- Space Type

SpaceList,
  Plenum Space Type,                      !- Name
  central ac and furnace airloop ret air space; !- Space Name 1

BuildingSurface:Detailed,
  Surface 1,                              !- Name
  Floor,                                  !- Surface Type
  AdiabaticConst,                         !- Construction Name
  central ac and furnace airloop ret air zone, !- Zone Name
  central ac and furnace airloop ret air space, !- Space Name
  Adiabatic,                              !- Outside Boundary Condition
  ,                                       !- Outside Boundary Condition Object
  NoSun,                                  !- Sun Exposure
  NoWind,                                 !- Wind Exposure
  ,                                       !- View Factor to Ground
  ,                                       !- Number of Vertices
  0, 0, 0,                                !- X,Y,Z Vertex 1 {m}
  0, 1, 0,                                !- X,Y,Z Vertex 2 {m}
  1, 1, 0,                                !- X,Y,Z Vertex 3 {m}
  1, 0, 0;                                !- X,Y,Z Vertex 4 {m}

SurfaceProperty:ConvectionCoefficients,
  Surface 1,                              !- Surface Name
  Inside,                                 !- Convection Coefficient 1 Location
  Value,                                  !- Convection Coefficient 1 Type
  30;                                     !- Convection Coefficient 1 {W/m2-K}

BuildingSurface:Detailed,
  Surface 2,                              !- Name
  Wall,                                   !- Surface Type
  AdiabaticConst,                         !- Construction Name
  central ac and furnace airloop ret air zone, !- Zone Name
  central ac and furnace airloop ret air space, !- Space Name
  Adiabatic,                              !- Outside Boundary Condition
  ,                                       !- Outside Boundary Condition Object
  NoSun,                                  !- Sun Exposure
  NoWind,                                 !- Wind Exposure
  ,                                       !- View Factor to Ground
  ,                                       !- Number of Vertices
  0, 0, 1,                                !- X,Y,Z Vertex 1 {m}
  0, 1, 1,                                !- X,Y,Z Vertex 2 {m}
  0, 1, 0,                                !- X,Y,Z Vertex 3 {m}
  0, 0, 0;                                !- X,Y,Z Vertex 4 {m}

SurfaceProperty:ConvectionCoefficients,
  Surface 2,                              !- Surface Name
  Inside,                                 !- Convection Coefficient 1 Location
  Value,                                  !- Convection Coefficient 1 Type
  30;                                     !- Convection Coefficient 1 {W/m2-K}

BuildingSurface:Detailed,
  Surface 3,                              !- Name
  Wall,                                   !- Surface Type
  AdiabaticConst,                         !- Construction Name
  central ac and furnace airloop ret air zone, !- Zone Name
  central ac and furnace airloop ret air space, !- Space Name
  Adiabatic,                              !- Outside Boundary Condition
  ,                                       !- Outside Boundary Condition Object
  NoSun,                                  !- Sun Exposure
  NoWind,                                 !- Wind Exposure
  ,                                       !- View Factor to Ground
  ,                                       !- Number of Vertices
  0, 1, 1,                                !- X,Y,Z Vertex 1 {m}
  1, 1, 1,                                !- X,Y,Z Vertex 2 {m}
  1, 1, 0,                                !- X,Y,Z Vertex 3 {m}
  0, 1, 0;                                !- X,Y,Z Vertex 4 {m}

SurfaceProperty:ConvectionCoefficients,
  Surface 3,                              !- Surface Name
  Inside,                                 !- Convection Coefficient 1 Location
  Value,                                  !- Convection Coefficient 1 Type
  30;                                     !- Convection Coefficient 1 {W/m2-K}

BuildingSurface:Detailed,
  Surface 4,                              !- Name
  Wall,                                   !- Surface Type
  AdiabaticConst,                         !- Construction Name
  central ac and furnace airloop ret air zone, !- Zone Name
  central ac and furnace airloop ret air space, !- Space Name
  Adiabatic,                              !- Outside Boundary Condition
  ,                                       !- Outside Boundary Condition Object
  NoSun,                                  !- Sun Exposure
  NoWind,                                 !- Wind Exposure
  ,                                       !- View Factor to Ground
  ,                                       !- Number of Vertices
  1, 1, 1,                                !- X,Y,Z Vertex 1 {m}
  1, 0, 1,                                !- X,Y,Z Vertex 2 {m}
  1, 0, 0,                                !- X,Y,Z Vertex 3 {m}
  1, 1, 0;                                !- X,Y,Z Vertex 4 {m}

SurfaceProperty:ConvectionCoefficients,
  Surface 4,                              !- Surface Name
  Inside,                                 !- Convection Coefficient 1 Location
  Value,                                  !- Convection Coefficient 1 Type
  30;                                     !- Convection Coefficient 1 {W/m2-K}

BuildingSurface:Detailed,
  Surface 5,                              !- Name
  Wall,                                   !- Surface Type
  AdiabaticConst,                         !- Construction Name
  central ac and furnace airloop ret air zone, !- Zone Name
  central ac and furnace airloop ret air space, !- Space Name
  Adiabatic,                              !- Outside Boundary Condition
  ,                                       !- Outside Boundary Condition Object
  NoSun,                                  !- Sun Exposure
  NoWind,                                 !- Wind Exposure
  ,                                       !- View Factor to Ground
  ,                                       !- Number of Vertices
  1, 0, 1,                                !- X,Y,Z Vertex 1 {m}
  0, 0, 1,                                !- X,Y,Z Vertex 2 {m}
  0, 0, 0,                                !- X,Y,Z Vertex 3 {m}
  1, 0, 0;                                !- X,Y,Z Vertex 4 {m}

SurfaceProperty:ConvectionCoefficients,
  Surface 5,                              !- Surface Name
  Inside,                                 !- Convection Coefficient 1 Location
  Value,                                  !- Convection Coefficient 1 Type
  30;                                     !- Convection Coefficient 1 {W/m2-K}

BuildingSurface:Detailed,
  Surface 6,                              !- Name
  Ceiling,                                !- Surface Type
  AdiabaticConst,                         !- Construction Name
  central ac and furnace airloop ret air zone, !- Zone Name
  central ac and furnace airloop ret air space, !- Space Name
  Adiabatic,                              !- Outside Boundary Condition
  ,                                       !- Outside Boundary Condition Object
  NoSun,                                  !- Sun Exposure
  NoWind,                                 !- Wind Exposure
  ,                                       !- View Factor to Ground
  ,                                       !- Number of Vertices
  1, 0, 1,                                !- X,Y,Z Vertex 1 {m}
  1, 1, 1,                                !- X,Y,Z Vertex 2 {m}
  0, 1, 1,                                !- X,Y,Z Vertex 3 {m}
  0, 0, 1;                                !- X,Y,Z Vertex 4 {m}

SurfaceProperty:ConvectionCoefficients,
  Surface 6,                              !- Surface Name
  Inside,                                 !- Convection Coefficient 1 Location
  Value,                                  !- Convection Coefficient 1 Type
  30;                                     !- Convection Coefficient 1 {W/m2-K}

OtherEquipment,
  central ac and furnace airloop_0 RetCondToRP, !- Name
  None,                                   !- Fuel Type
  central ac and furnace airloop ret air space, !- Zone or ZoneList or Space or SpaceList Name
  Always On Discrete,                     !- Schedule Name
  EquipmentLevel,                         !- Design Level Calculation Method
  0,                                      !- Design Level {W}
  ,                                       !- Power per Floor Area {W/m2}
  ,                                       !- Power per Person {W/person}
  0,                                      !- Fraction Latent
  0,                                      !- Fraction Radiant
  0,                                      !- Fraction Lost
  ,                                       !- Carbon Dioxide Generation Rate {m3/s-W}
  duct load;                              !- End-Use Subcategory

OtherEquipment,
  central ac and furnace airloop_0 RetLatLkToRP, !- Name
  None,                                   !- Fuel Type
  central ac and furnace airloop ret air space, !- Zone or ZoneList or Space or SpaceList Name
  Always On Discrete,                     !- Schedule Name
  EquipmentLevel,                         !- Design Level Calculation Method
  0,                                      !- Design Level {W}
  ,                                       !- Power per Floor Area {W/m2}
  ,                                       !- Power per Person {W/person}
  1,                                      !- Fraction Latent
  0,                                      !- Fraction Radiant
  0,                                      !- Fraction Lost
  ,                                       !- Carbon Dioxide Generation Rate {m3/s-W}
  duct load;                              !- End-Use Subcategory

OtherEquipment,
  central ac and furnace airloop_0 RetSensLkToRP, !- Name
  None,                                   !- Fuel Type
  central ac and furnace airloop ret air space, !- Zone or ZoneList or Space or SpaceList Name
  Always On Discrete,                     !- Schedule Name
  EquipmentLevel,                         !- Design Level Calculation Method
  0,                                      !- Design Level {W}
  ,                                       !- Power per Floor Area {W/m2}
  ,                                       !- Power per Person {W/person}
  0,                                      !- Fraction Latent
  0,                                      !- Fraction Radiant
  0,                                      !- Fraction Lost
  ,                                       !- Carbon Dioxide Generation Rate {m3/s-W}
  duct load;                              !- End-Use Subcategory

Zone,
  conditioned space,                      !- Name
  ,                                       !- Direction of Relative North {deg}
  0,                                      !- X Origin {m}